model BasicBuilder -ndm 2 -ndf 3;

# 几何参数
set LColB  [expr 3657.6 * $mm];
set LCol1  [expr 5486.4 * $mm];
set LCol29  [expr 3962.4 * $mm];      
set LBeam  [expr 9144 * $mm];
set NStory 9;
set NBay 5;

# 结点
set X1 0.;
set X2 [expr $X1 + $LBeam];
set X3 [expr $X2 + $LBeam];
set X4 [expr $X3 + $LBeam];
set X5 [expr $X4 + $LBeam];
set X6 [expr $X5 + $LBeam];
set Y0 0.;
set Y1 [expr $Y0 + $LColB];
set Y2 [expr $Y1 + $LCol1];
set Y23 [expr $Y2 + $LCol29 * 0.46];
set Y3 [expr $Y2 + $LCol29];
set Y4 [expr $Y3 + $LCol29];
set Y45 [expr $Y4 + $LCol29 * 0.46];
set Y5 [expr $Y4 + $LCol29];
set Y6 [expr $Y5 + $LCol29];
set Y67 [expr $Y6 + $LCol29 * 0.46];
set Y7 [expr $Y6 + $LCol29];
set Y8 [expr $Y7 + $LCol29];
set Y89 [expr $Y8 + $LCol29 * 0.46];
set Y9 [expr $Y8 + $LCol29];
set Y10 [expr $Y9 + $LCol29];
# node 10 $X1 $Y0;
# node 20 $X2 $Y0;
# node 30 $X3 $Y0;
# node 40 $X4 $Y0;
# node 50 $X5 $Y0;
# node 60 $X6 $Y0;
node 11 $X1 $Y1;
node 12 $X2 $Y1;
node 13 $X3 $Y1;
node 14 $X4 $Y1;
node 15 $X5 $Y1;
node 16 $X6 $Y1;
node 21 $X1 $Y2;
node 22 $X2 $Y2;
node 23 $X3 $Y2;
node 24 $X4 $Y2;
node 25 $X5 $Y2;
node 26 $X6 $Y2;
node 31 $X1 $Y3;
node 32 $X2 $Y3;
node 33 $X3 $Y3;
node 34 $X4 $Y3;
node 35 $X5 $Y3;
node 36 $X6 $Y3;
node 41 $X1 $Y4;
node 42 $X2 $Y4;
# ... 62 like lines cut
# 控制结点
set IDctrlNode [expr ($TargetFloor + 1) * 10 + 1];
set IDctrlDOF 1;

# 约束
# fix 10 1 1 0;
# fix 20 1 1 0;
# fix 30 1 1 0;
# fix 40 1 1 0;
# fix 50 1 1 0;
# fix 60 1 1 0;
# fix 11 1 0 0;
# fix 16 1 0 0;
fix 11 1 1 1;
fix 12 1 1 1;
fix 13 1 1 1;
fix 14 1 1 1;
fix 15 1 1 1;
fix 16 1 1 1;
rigidLink beam 21 22;
rigidLink beam 22 23;
rigidLink beam 23 24;
rigidLink beam 24 25;
rigidLink beam 25 26;
rigidLink beam 31 32;
rigidLink beam 32 33;
rigidLink beam 33 34;
rigidLink beam 34 35;
rigidLink beam 35 36;
rigidLink beam 41 42;
rigidLink beam 42 43;
rigidLink beam 43 44;
rigidLink beam 44 45;
rigidLink beam 45 46;
rigidLink beam 51 52;
rigidLink beam 52 53;
rigidLink beam 53 54;
rigidLink beam 54 55;
rigidLink beam 55 56;
# ... 25 like lines cut
set Yi "$Y2 $Y3 $Y4 $Y5 $Y6 $Y7 $Y8 $Y9 $Y10";
for {set i 1} {$i < $TargetFloor} {incr i} {
   fixY [lindex $Yi [expr $i - 1]] 1 1 1;
};

# 材料
set Myw36x160axis3 [expr 2.3044e9 * $NT * $mm];
set Myw36x135axis3 [expr 1.8323e9 * $NT * $mm];	
set Myw30x99axis3 [expr  1.1236e9 * $NT * $mm];
set Myw27x84axis3 [expr  8.8937e8 * $NT * $mm];	
set Myw24x68axis3 [expr  6.4672e8 * $NT * $mm]; 
set Myw14x370axis3 [expr  3.6106e9 * $NT * $mm];
set Myw14x370axis2 [expr  1.6502e9 * $NT * $mm];
set Myw14x283axis3 [expr  2.7244e9 * $NT * $mm];
set Myw14x283axis2 [expr  1.2245e9 * $NT * $mm]; 
set Myw14x257axis3 [expr  2.4521e9 * $NT * $mm];
set Myw14x257axis2 [expr  1.0926e9 * $NT * $mm]; 
set Myw14x233axis3 [expr  2.2233e9 * $NT * $mm];
set Myw14x233axis2 [expr  9.9141e8 * $NT * $mm]; 
set Myw14x500axis3 [expr  4.9711e9 * $NT * $mm];
set Myw14x455axis3 [expr  4.4952e9 * $NT * $mm];
set Es [expr 200000 * $MPa];
set EAbeam 1.0e10;	
set EAw14x370 [expr $Es * 70382 * $mm2];
set EAw14x283 [expr $Es * 53881 * $mm2];
set EAw14x257 [expr $Es * 48576 * $mm2];
set EAw14x233 [expr $Es * 44165 * $mm2];
set EAw14x500 [expr $Es * 94816 * $mm2];
set EAw14x455 [expr $Es * 86461 * $mm2];
set EIw36x160axis3 [expr $Es * 4.0451e9 * $mm4];
set EIw36x135axis3 [expr $Es * 3.1741e9 * $mm4];	
set EIw30x99axis3 [expr $Es * 1.6231e9 * $mm4];
set EIw27x84axis3 [expr $Es * 1.1568e9 * $mm4];	
set EIw24x68axis3 [expr $Es * 7.4813e8 * $mm4]; 
set EIw14x370axis3 [expr $Es * 2.2692e9 * $mm4];
set EIw14x370axis2 [expr $Es * 8.3565e8 * $mm4];
set EIw14x283axis3 [expr $Es * 1.5993e9 * $mm4];
set EIw14x283axis2 [expr $Es * 6.0531e8 * $mm4]; 
set EIw14x257axis3 [expr $Es * 1.409e9 * $mm4];
set EIw14x257axis2 [expr $Es * 5.3611e8 * $mm4]; 
set EIw14x233axis3 [expr $Es * 1.2499e9 * $mm4];
set EIw14x233axis2 [expr $Es * 4.8408e8 * $mm4]; 
set EIw14x500axis3 [expr $Es * 3.4195e9 * $mm4];
set EIw14x455axis3 [expr $Es * 2.999e9 * $mm4];
set b 0.01;
set Axialbeam 0;
set Axialw14x370 1;
set Axialw14x283 2;
set Axialw14x257 3;
set Axialw14x233 4;
set Axialw14x500 5;
set Axialw14x455 6;
set Flexw36x160axis3 7;
set Flexw36x135axis3 8;	
set Flexw30x99axis3 9;
set Flexw27x84axis3 10;	
set Flexw24x68axis3 11; 
set Flexw14x370axis3 12;
set Flexw14x370axis2 13;
set Flexw14x283axis3 14;
set Flexw14x283axis2 15; 
set Flexw14x257axis3 16;
set Flexw14x257axis2 17; 
set Flexw14x233axis3 18;
set Flexw14x233axis2 19; 
set Flexw14x500axis3 20;
set Flexw14x455axis3 21;
set Secw36x160axis3 22;
set Secw36x135axis3 23;	
set Secw30x99axis3 24;
set Secw27x84axis3 25;	
set Secw24x68axis3 26;
set Secw14x370axis3 27;
set Secw14x370axis2 28;
set Secw14x283axis3 29;
set Secw14x283axis2 30;
set Secw14x257axis3 31;
set Secw14x257axis2 32;
set Secw14x233axis3 33;
set Secw14x233axis2 34;
set Secw14x500axis3 35;
set Secw14x455axis3 36;
uniaxialMaterial Elastic $Axialbeam $EAbeam; 
uniaxialMaterial Elastic $Axialw14x370 $EAw14x370;
uniaxialMaterial Elastic $Axialw14x283 $EAw14x283;
uniaxialMaterial Elastic $Axialw14x257 $EAw14x257;
uniaxialMaterial Elastic $Axialw14x233 $EAw14x233;
uniaxialMaterial Elastic $Axialw14x500 $EAw14x500;
uniaxialMaterial Elastic $Axialw14x455 $EAw14x455;
uniaxialMaterial Steel01 $Flexw36x160axis3 $Myw36x160axis3 $EIw36x160axis3 $b;
uniaxialMaterial Steel01 $Flexw36x135axis3 $Myw36x135axis3 $EIw36x135axis3 $b;	
uniaxialMaterial Steel01 $Flexw30x99axis3 $Myw30x99axis3 $EIw30x99axis3 $b;
uniaxialMaterial Steel01 $Flexw27x84axis3 $Myw27x84axis3 $EIw27x84axis3 $b;	
uniaxialMaterial Steel01 $Flexw24x68axis3 $Myw24x68axis3 $EIw24x68axis3 $b; 
uniaxialMaterial Steel01 $Flexw14x370axis3 $Myw14x370axis3 $EIw14x370axis3 $b;
uniaxialMaterial Steel01 $Flexw14x370axis2 $Myw14x370axis2 $EIw14x370axis2 $b;
uniaxialMaterial Steel01 $Flexw14x283axis3 $Myw14x283axis3 $EIw14x283axis3 $b;
uniaxialMaterial Steel01 $Flexw14x283axis2 $Myw14x283axis2 $EIw14x283axis2 $b; 
uniaxialMaterial Steel01 $Flexw14x257axis3 $Myw14x257axis3 $EIw14x257axis3 $b;
uniaxialMaterial Steel01 $Flexw14x257axis2 $Myw14x257axis2 $EIw14x257axis2 $b; 
uniaxialMaterial Steel01 $Flexw14x233axis3 $Myw14x233axis3 $EIw14x233axis3 $b;
uniaxialMaterial Steel01 $Flexw14x233axis2 $Myw14x233axis2 $EIw14x233axis2 $b; 
uniaxialMaterial Steel01 $Flexw14x500axis3 $Myw14x500axis3 $EIw14x500axis3 $b;
uniaxialMaterial Steel01 $Flexw14x455axis3 $Myw14x455axis3 $EIw14x455axis3 $b;

# 截面
section Aggregator $Secw36x160axis3 $Axialbeam P $Flexw36x160axis3 Mz;
section Aggregator $Secw36x135axis3 $Axialbeam P $Flexw36x135axis3 Mz;	
section Aggregator $Secw30x99axis3 $Axialbeam P $Flexw30x99axis3 Mz;
section Aggregator $Secw27x84axis3 $Axialbeam P $Flexw27x84axis3 Mz;	
section Aggregator $Secw24x68axis3 $Axialbeam P $Flexw24x68axis3 Mz;
section Aggregator $Secw14x370axis3 $Axialw14x370 P $Flexw14x370axis3 Mz;
section Aggregator $Secw14x370axis2 $Axialw14x370 P $Flexw14x370axis2 Mz;
section Aggregator $Secw14x283axis3 $Axialw14x283 P $Flexw14x283axis3 Mz;
section Aggregator $Secw14x283axis2 $Axialw14x283 P $Flexw14x283axis2 Mz;
section Aggregator $Secw14x257axis3 $Axialw14x257 P $Flexw14x257axis3 Mz;
section Aggregator $Secw14x257axis2 $Axialw14x257 P $Flexw14x257axis2 Mz;
section Aggregator $Secw14x233axis3 $Axialw14x233 P $Flexw14x233axis3 Mz;
section Aggregator $Secw14x233axis2 $Axialw14x233 P $Flexw14x233axis2 Mz;
section Aggregator $Secw14x500axis3 $Axialw14x500 P $Flexw14x500axis3 Mz;
section Aggregator $Secw14x455axis3 $Axialw14x455 P $Flexw14x455axis3 Mz;

# 单元
set IDColTransf 1;
set IDBeamTransf 2;
geomTransf PDelta $IDColTransf;
geomTransf Linear $IDBeamTransf;
set np 5;
# 地下室柱单元
# element nonlinearBeamColumn 0111 10 11 $np $Secw14x370axis3 $IDColTransf;
# element nonlinearBeamColumn 0212 20 12 $np $Secw14x500axis3 $IDColTransf;
# element nonlinearBeamColumn 0313 30 13 $np $Secw14x500axis3 $IDColTransf;
# element nonlinearBeamColumn 0414 40 14 $np $Secw14x500axis3 $IDColTransf;
# element nonlinearBeamColumn 0515 50 15 $np $Secw14x500axis3 $IDColTransf;
# element nonlinearBeamColumn 0616 60 16 $np $Secw14x370axis2 $IDColTransf;
# 1层柱单元
element nonlinearBeamColumn 1121 11 21 $np $Secw14x370axis3 $IDColTransf;
element nonlinearBeamColumn 1222 12 22 $np $Secw14x500axis3 $IDColTransf;
element nonlinearBeamColumn 1323 13 23 $np $Secw14x500axis3 $IDColTransf;
element nonlinearBeamColumn 1424 14 24 $np $Secw14x500axis3 $IDColTransf;
element nonlinearBeamColumn 1525 15 25 $np $Secw14x500axis3 $IDColTransf;
element nonlinearBeamColumn 1626 16 26 $np $Secw14x370axis2 $IDColTransf;
# 2层柱单元
element nonlinearBeamColumn 2131 21 31 $np $Secw14x370axis3 $IDColTransf;
element nonlinearBeamColumn 22232 22 232 $np $Secw14x500axis3 $IDColTransf;
element nonlinearBeamColumn 23232 232 32 $np $Secw14x455axis3 $IDColTransf;
element nonlinearBeamColumn 23233 23 233 $np $Secw14x500axis3 $IDColTransf;
element nonlinearBeamColumn 23333 233 33 $np $Secw14x455axis3 $IDColTransf;
element nonlinearBeamColumn 24234 24 234 $np $Secw14x500axis3 $IDColTransf;
element nonlinearBeamColumn 23434 234 34 $np $Secw14x455axis3 $IDColTransf;
element nonlinearBeamColumn 25235 25 235 $np $Secw14x500axis3 $IDColTransf;
element nonlinearBeamColumn 23535 235 35 $np $Secw14x455axis3 $IDColTransf;
element nonlinearBeamColumn 2636 26 36 $np $Secw14x370axis2 $IDColTransf;
# 3层柱单元
element nonlinearBeamColumn 3141 31 41 $np $Secw14x370axis3 $IDColTransf;
element nonlinearBeamColumn 3242 32 42 $np $Secw14x455axis3 $IDColTransf;
element nonlinearBeamColumn 3343 33 43 $np $Secw14x455axis3 $IDColTransf;
element nonlinearBeamColumn 3444 34 44 $np $Secw14x455axis3 $IDColTransf;
element nonlinearBeamColumn 3545 35 45 $np $Secw14x455axis3 $IDColTransf;
element nonlinearBeamColumn 3646 36 46 $np $Secw14x370axis2 $IDColTransf;
# 4层柱单元
element nonlinearBeamColumn 41451 41 451 $np $Secw14x370axis3 $IDColTransf;
element nonlinearBeamColumn 45151 451 51 $np $Secw14x283axis3 $IDColTransf;
element nonlinearBeamColumn 42452 42 452 $np $Secw14x455axis3 $IDColTransf;
element nonlinearBeamColumn 45252 452 52 $np $Secw14x370axis3 $IDColTransf;
element nonlinearBeamColumn 43453 43 453 $np $Secw14x455axis3 $IDColTransf;
element nonlinearBeamColumn 45353 453 53 $np $Secw14x370axis3 $IDColTransf;
element nonlinearBeamColumn 44454 44 454 $np $Secw14x455axis3 $IDColTransf;
element nonlinearBeamColumn 45454 454 54 $np $Secw14x370axis3 $IDColTransf;
element nonlinearBeamColumn 45455 45 455 $np $Secw14x455axis3 $IDColTransf;
element nonlinearBeamColumn 45555 455 55 $np $Secw14x370axis3 $IDColTransf;
element nonlinearBeamColumn 46456 46 456 $np $Secw14x370axis2 $IDColTransf;
element nonlinearBeamColumn 45656 456 56 $np $Secw14x283axis2 $IDColTransf;
# 5层柱单元
element nonlinearBeamColumn 5161 51 61 $np $Secw14x283axis3 $IDColTransf;
element nonlinearBeamColumn 5262 52 62 $np $Secw14x370axis3 $IDColTransf;
element nonlinearBeamColumn 5363 53 63 $np $Secw14x370axis3 $IDColTransf;
element nonlinearBeamColumn 5464 54 64 $np $Secw14x370axis3 $IDColTransf;
element nonlinearBeamColumn 5565 55 65 $np $Secw14x370axis3 $IDColTransf;
element nonlinearBeamColumn 5666 56 66 $np $Secw14x283axis2 $IDColTransf;
# 6层柱单元
element nonlinearBeamColumn 61671 61 671 $np $Secw14x283axis3 $IDColTransf;
element nonlinearBeamColumn 67171 671 71 $np $Secw14x257axis3 $IDColTransf;
element nonlinearBeamColumn 62672 62 672 $np $Secw14x370axis3 $IDColTransf;
element nonlinearBeamColumn 67272 672 72 $np $Secw14x283axis3 $IDColTransf;
element nonlinearBeamColumn 63673 63 673 $np $Secw14x370axis3 $IDColTransf;
element nonlinearBeamColumn 67373 673 73 $np $Secw14x283axis3 $IDColTransf;
element nonlinearBeamColumn 64674 64 674 $np $Secw14x370axis3 $IDColTransf;
element nonlinearBeamColumn 67474 674 74 $np $Secw14x283axis3 $IDColTransf;
element nonlinearBeamColumn 65675 65 675 $np $Secw14x370axis3 $IDColTransf;
element nonlinearBeamColumn 67575 675 75 $np $Secw14x283axis3 $IDColTransf;
element nonlinearBeamColumn 66676 66 676 $np $Secw14x283axis2 $IDColTransf;
element nonlinearBeamColumn 67676 676 76 $np $Secw14x257axis2 $IDColTransf;
# 7层柱单元
element nonlinearBeamColumn 7181 71 81 $np $Secw14x257axis3 $IDColTransf;
element nonlinearBeamColumn 7282 72 82 $np $Secw14x283axis3 $IDColTransf;
element nonlinearBeamColumn 7383 73 83 $np $Secw14x283axis3 $IDColTransf;
element nonlinearBeamColumn 7484 74 84 $np $Secw14x283axis3 $IDColTransf;
element nonlinearBeamColumn 7585 75 85 $np $Secw14x283axis3 $IDColTransf;
element nonlinearBeamColumn 7686 76 86 $np $Secw14x257axis2 $IDColTransf;
# 8层柱单元
element nonlinearBeamColumn 81891 81 891 $np $Secw14x257axis3 $IDColTransf;
element nonlinearBeamColumn 89191 891 91 $np $Secw14x233axis3 $IDColTransf;
element nonlinearBeamColumn 82892 82 892 $np $Secw14x283axis3 $IDColTransf;
element nonlinearBeamColumn 89292 892 92 $np $Secw14x257axis3 $IDColTransf;
element nonlinearBeamColumn 83893 83 893 $np $Secw14x283axis3 $IDColTransf;
element nonlinearBeamColumn 89393 893 93 $np $Secw14x257axis3 $IDColTransf;
element nonlinearBeamColumn 84894 84 894 $np $Secw14x283axis3 $IDColTransf;
element nonlinearBeamColumn 89494 894 94 $np $Secw14x257axis3 $IDColTransf;
element nonlinearBeamColumn 85895 85 895 $np $Secw14x283axis3 $IDColTransf;
element nonlinearBeamColumn 89595 895 95 $np $Secw14x257axis3 $IDColTransf;
element nonlinearBeamColumn 86896 86 896 $np $Secw14x257axis2 $IDColTransf;
element nonlinearBeamColumn 89696 896 96 $np $Secw14x233axis2 $IDColTransf;
# 9层柱单元
element nonlinearBeamColumn 91101 91 101 $np $Secw14x233axis3 $IDColTransf;
element nonlinearBeamColumn 92102 92 102 $np $Secw14x257axis3 $IDColTransf;
element nonlinearBeamColumn 93103 93 103 $np $Secw14x257axis3 $IDColTransf;
element nonlinearBeamColumn 94104 94 104 $np $Secw14x257axis3 $IDColTransf;
element nonlinearBeamColumn 95105 95 105 $np $Secw14x257axis3 $IDColTransf;
element nonlinearBeamColumn 96106 96 106 $np $Secw14x233axis2 $IDColTransf;
# 地下室顶梁单元
# element nonlinearBeamColumn 1112 11 12 $np $Secw36x160axis3 $IDBeamTransf;
# element nonlinearBeamColumn 1213 12 13 $np $Secw36x160axis3 $IDBeamTransf;
# element nonlinearBeamColumn 1314 13 14 $np $Secw36x160axis3 $IDBeamTransf;
# element nonlinearBeamColumn 1415 14 15 $np $Secw36x160axis3 $IDBeamTransf;
# element nonlinearBeamColumn 1516 15 16 $np $Secw36x160axis3 $IDBeamTransf;
# 1层梁单元
element nonlinearBeamColumn 2122 21 22 $np $Secw36x160axis3 $IDBeamTransf;
element nonlinearBeamColumn 2223 22 23 $np $Secw36x160axis3 $IDBeamTransf;
element nonlinearBeamColumn 2324 23 24 $np $Secw36x160axis3 $IDBeamTransf;
element nonlinearBeamColumn 2425 24 25 $np $Secw36x160axis3 $IDBeamTransf;
element nonlinearBeamColumn 2526 25 26 $np $Secw36x160axis3 $IDBeamTransf;
# 2层梁单元
element nonlinearBeamColumn 3132 31 32 $np $Secw36x160axis3 $IDBeamTransf;
element nonlinearBeamColumn 3233 32 33 $np $Secw36x160axis3 $IDBeamTransf;
element nonlinearBeamColumn 3334 33 34 $np $Secw36x160axis3 $IDBeamTransf;
element nonlinearBeamColumn 3435 34 35 $np $Secw36x160axis3 $IDBeamTransf;
element nonlinearBeamColumn 3536 35 36 $np $Secw36x160axis3 $IDBeamTransf;
# 3层梁单元
element nonlinearBeamColumn 4142 41 42 $np $Secw36x135axis3 $IDBeamTransf;
element nonlinearBeamColumn 4243 42 43 $np $Secw36x135axis3 $IDBeamTransf;
element nonlinearBeamColumn 4344 43 44 $np $Secw36x135axis3 $IDBeamTransf;
element nonlinearBeamColumn 4445 44 45 $np $Secw36x135axis3 $IDBeamTransf;
element nonlinearBeamColumn 4546 45 46 $np $Secw36x135axis3 $IDBeamTransf;
# 4层梁单元
element nonlinearBeamColumn 5152 51 52 $np $Secw36x135axis3 $IDBeamTransf;
element nonlinearBeamColumn 5253 52 53 $np $Secw36x135axis3 $IDBeamTransf;
element nonlinearBeamColumn 5354 53 54 $np $Secw36x135axis3 $IDBeamTransf;
element nonlinearBeamColumn 5455 54 55 $np $Secw36x135axis3 $IDBeamTransf;
element nonlinearBeamColumn 5556 55 56 $np $Secw36x135axis3 $IDBeamTransf;
# 5层梁单元
element nonlinearBeamColumn 6162 61 62 $np $Secw36x135axis3 $IDBeamTransf;
element nonlinearBeamColumn 6263 62 63 $np $Secw36x135axis3 $IDBeamTransf;
element nonlinearBeamColumn 6364 63 64 $np $Secw36x135axis3 $IDBeamTransf;
element nonlinearBeamColumn 6465 64 65 $np $Secw36x135axis3 $IDBeamTransf;
element nonlinearBeamColumn 6566 65 66 $np $Secw36x135axis3 $IDBeamTransf;
# 6层梁单元
element nonlinearBeamColumn 7172 71 72 $np $Secw36x135axis3 $IDBeamTransf;
element nonlinearBeamColumn 7273 72 73 $np $Secw36x135axis3 $IDBeamTransf;
element nonlinearBeamColumn 7374 73 74 $np $Secw36x135axis3 $IDBeamTransf;
element nonlinearBeamColumn 7475 74 75 $np $Secw36x135axis3 $IDBeamTransf;
element nonlinearBeamColumn 7576 75 76 $np $Secw36x135axis3 $IDBeamTransf;
# 7层梁单元
element nonlinearBeamColumn 8182 81 82 $np $Secw30x99axis3 $IDBeamTransf;
element nonlinearBeamColumn 8283 82 83 $np $Secw30x99axis3 $IDBeamTransf;
element nonlinearBeamColumn 8384 83 84 $np $Secw30x99axis3 $IDBeamTransf;
element nonlinearBeamColumn 8485 84 85 $np $Secw30x99axis3 $IDBeamTransf;
element nonlinearBeamColumn 8586 85 86 $np $Secw30x99axis3 $IDBeamTransf;
# 8层梁单元
element nonlinearBeamColumn 9192 91 92 $np $Secw27x84axis3 $IDBeamTransf;
element nonlinearBeamColumn 9293 92 93 $np $Secw27x84axis3 $IDBeamTransf;
element nonlinearBeamColumn 9394 93 94 $np $Secw27x84axis3 $IDBeamTransf;
element nonlinearBeamColumn 9495 94 95 $np $Secw27x84axis3 $IDBeamTransf;
element nonlinearBeamColumn 9596 95 96 $np $Secw27x84axis3 $IDBeamTransf;
# 9层梁单元
element nonlinearBeamColumn 101102 101 102 $np $Secw24x68axis3 $IDBeamTransf;
element nonlinearBeamColumn 102103 102 103 $np $Secw24x68axis3 $IDBeamTransf;
element nonlinearBeamColumn 103104 103 104 $np $Secw24x68axis3 $IDBeamTransf;
element nonlinearBeamColumn 104105 104 105 $np $Secw24x68axis3 $IDBeamTransf;
element nonlinearBeamColumn 105106 105 106 $np $Secw24x68axis3 $IDBeamTransf;

# 质量
set m1 [expr 822800 * $NT / $G];
set m28 [expr 808740 * $NT / $G];
set m9 [expr 871190 * $NT / $G];
mass 21  $m1 0. 0.;
mass 22  $m1 0. 0.;              
mass 23  $m1 0. 0.;
mass 24  $m1 0. 0.;
mass 25  $m1 0. 0.;
mass 26  $m1 0. 0.;
mass 31  $m28 0. 0.;
mass 32  $m28 0. 0.;
mass 33  $m28 0. 0.;
mass 34  $m28 0. 0.;
mass 35  $m28 0. 0.;
mass 36  $m28 0. 0.;
mass 41  $m28 0. 0.;
mass 42  $m28 0. 0.;
mass 43  $m28 0. 0.;
mass 44  $m28 0. 0.;
mass 45  $m28 0. 0.;
mass 46  $m28 0. 0.;
mass 51  $m28 0. 0.;
mass 52  $m28 0. 0.;
# ... 34 like lines cut
